54
Lattice="9.540000000000001 0.0 0.0 -4.77 8.261882352103544 0.0 0.0 0.0 43.19" Properties=species:S:1:pos:R:3:group:R:1 pbc="T T F"
Mo      -4.70638031       8.21217869      24.87355544       0.00000000
Mo       0.92582899       4.49960869      18.33228818       1.00000000
Mo       6.37861155       5.45866973      24.86322687       0.00000000
Mo       4.79313637       2.63328311      24.84912404       0.00000000
Mo       3.16032829       0.02529203      24.73389359       0.00000000
Mo       7.94769891       2.72607603      24.84596328       0.00000000
Mo       1.57930650       8.11720266      24.84720452       0.00000000
Mo       1.57173318       2.73951003      24.85190885       0.00000000
Mo       3.10054020       5.49718970      24.97199990       0.00000000
Mo       0.03570768       5.42770166      24.91768762       0.00000000
Mo       5.73459211       1.71607576      18.32574729       1.00000000
Mo      -0.54157941       7.20059309      18.29219048       1.00000000
Mo      -0.54324398       1.64423063      18.39218304       1.00000000
Mo      -3.75690260       7.19482407      18.36301818       1.00000000
Mo       2.68833606       7.24507732      18.30339834       1.00000000
Mo       2.58285771       1.67409341      18.34118550       1.00000000
Mo      -2.16847242       4.44586976      18.29196309       1.00000000
Mo       4.17384050       4.50613910      18.29167952       1.00000000
S        7.91554454       0.79466838      26.40616930       0.00000000
S        4.15339438       8.00475533      19.96815003       1.00000000
S        1.70583460       0.85084822      23.18003143       0.00000000
S        4.76639445       0.95605505      23.20462421       0.00000000
S        8.09370681       0.82762793      23.36212483       0.00000000
S       -0.02192198       3.62676093      23.13708262       0.00000000
S        3.11642949       3.68951751      23.25602440       0.00000000
S        6.35703404       3.59782527      23.27928059       0.00000000
S       -1.54472062       6.39120558      23.25997607       0.00000000
S        4.72330898       6.29648908      23.26921481       0.00000000
S       -2.14006592       8.14081558      19.96744398       1.00000000
S        1.58983005       0.93326653      26.42133061       0.00000000
S        0.05194302       3.54640403      26.45203120       0.00000000
S        3.15220015       3.67215689      26.43641727       0.00000000
S        6.36482683       3.70569107      26.40200150       0.00000000
S       -1.54256564       6.40404174      26.48151474       0.00000000
S        1.58943400       6.34023221      26.57241716       0.00000000
S        4.73890754       6.40700491      26.52732976       0.00000000
S        4.08036682       2.77360590      16.72109691       1.00000000
S        7.37553266       2.58842760      16.78917145       1.00000000
S        0.96179677       2.61305352      16.83296655       1.00000000
S        2.62990428       5.37091278      16.68988337       1.00000000
S        5.89505073       5.37690943      16.65546765       1.00000000
S       -0.63240254       5.38527662      16.68384076       1.00000000
S        1.00749472       8.11155345      16.75189563       1.00000000
S        4.25156120       8.24150052      16.75621685       1.00000000
S       -2.12536065       8.10889762      16.79503783       1.00000000
S        4.23721651       2.73013673      19.90090844       1.00000000
S        7.36751042       2.66144462      19.91469751       1.00000000
S        0.90938291       2.69041658      20.00397693       1.00000000
S        2.65386985       5.42351563      19.89188366       1.00000000
S        5.71624633       5.33549200      19.94444197       1.00000000
S       -0.59354680       5.32694617      20.00766856       1.00000000
S        1.00398636       8.16149881      19.94552260       1.00000000
S        4.68861374       0.88207507      26.32661699       0.00000000
S        1.54960520       6.38182545      23.29072895       0.00000000
